Version 4
SHEET 1 3524 680
WIRE 304 -400 -48 -400
WIRE 1008 -400 304 -400
WIRE 1712 -400 1360 -400
WIRE 2032 -400 1792 -400
WIRE 2080 -400 2032 -400
WIRE 2176 -400 2144 -400
WIRE 2240 -400 2176 -400
WIRE 2368 -400 2304 -400
WIRE 2480 -400 2368 -400
WIRE 2592 -400 2480 -400
WIRE 2672 -400 2592 -400
WIRE 2752 -400 2672 -400
WIRE 2768 -400 2752 -400
WIRE 1008 -368 1008 -400
WIRE 1056 -368 1008 -368
WIRE 1152 -368 1120 -368
WIRE 1232 -368 1152 -368
WIRE 1360 -368 1360 -400
WIRE 1360 -368 1232 -368
WIRE 304 -336 304 -400
WIRE 2032 -336 2032 -400
WIRE 1232 -320 1232 -368
WIRE 1008 -288 1008 -368
WIRE 1056 -288 1008 -288
WIRE 1184 -288 1120 -288
WIRE 1968 -288 1888 -288
WIRE 2176 -256 2176 -400
WIRE 2480 -256 2480 -400
WIRE 1824 -240 1712 -240
WIRE 2368 -240 2368 -400
WIRE 1056 -192 1008 -192
WIRE 1152 -192 1152 -368
WIRE 1152 -192 1120 -192
WIRE 1552 -192 1424 -192
WIRE 1552 -144 1552 -192
WIRE 1712 -144 1712 -240
WIRE 2752 -144 2752 -400
WIRE 2864 -144 2752 -144
WIRE 1008 -112 1008 -192
WIRE 1056 -112 1008 -112
WIRE 1184 -112 1184 -288
WIRE 1184 -112 1120 -112
WIRE 1232 -112 1232 -256
WIRE 1232 -112 1184 -112
WIRE 1360 -112 1232 -112
WIRE 2592 -80 2592 -400
WIRE 2672 -80 2672 -400
WIRE 2864 -80 2864 -144
WIRE 304 -64 304 -272
WIRE 544 -64 304 -64
WIRE 592 -64 544 -64
WIRE 640 -64 592 -64
WIRE 736 -64 704 -64
WIRE 816 -64 736 -64
WIRE 1424 -64 1424 -192
WIRE 1424 -64 816 -64
WIRE 1424 -48 1424 -64
WIRE 1472 -48 1424 -48
WIRE 2368 -48 2368 -176
WIRE 2368 -48 1792 -48
WIRE 2480 -48 2480 -176
WIRE 2480 -48 2368 -48
WIRE 816 -16 816 -64
WIRE 304 0 304 -64
WIRE 592 16 592 -64
WIRE 640 16 592 16
WIRE 768 16 704 16
WIRE -48 32 -48 -400
WIRE 544 32 544 -64
WIRE 2480 48 2480 -48
WIRE 2864 80 2864 0
WIRE 2864 80 2752 80
WIRE 640 112 592 112
WIRE 736 112 736 -64
WIRE 736 112 704 112
WIRE -48 192 -48 112
WIRE 192 192 -48 192
WIRE 304 192 304 64
WIRE 304 192 192 192
WIRE 544 192 544 112
WIRE 544 192 304 192
WIRE 592 192 592 112
WIRE 592 192 544 192
WIRE 640 192 592 192
WIRE 768 192 768 16
WIRE 768 192 704 192
WIRE 816 192 816 48
WIRE 816 192 768 192
WIRE 1360 192 1360 -112
WIRE 1360 192 816 192
WIRE 1632 192 1632 48
WIRE 1632 192 1360 192
WIRE 1888 192 1888 -192
WIRE 1888 192 1632 192
WIRE 2032 192 2032 -240
WIRE 2032 192 1888 192
WIRE 2176 192 2176 -176
WIRE 2176 192 2032 192
WIRE 2480 192 2480 128
WIRE 2480 192 2176 192
WIRE 2592 192 2592 -16
WIRE 2592 192 2480 192
WIRE 2672 192 2672 -16
WIRE 2672 192 2592 192
WIRE 2752 192 2752 80
WIRE 2752 192 2672 192
WIRE 2768 192 2752 192
WIRE -48 224 -48 192
WIRE 192 240 192 192
WIRE 1008 240 1008 -112
WIRE 1008 240 192 240
FLAG -48 224 0
FLAG 2768 -400 Vout
IOPIN 2768 -400 Out
FLAG 2768 192 PWR_GND
IOPIN 2768 192 BiDir
SYMBOL voltage -48 16 R0
WINDOW 123 0 0 Left 0
WINDOW 39 0 0 Left 0
SYMATTR InstName V1
SYMATTR Value SINE(0 325 50 0)
SYMBOL diode 640 -48 R270
WINDOW 0 32 32 VTop 2
WINDOW 3 0 32 VBottom 2
SYMATTR InstName D1
SYMATTR Value 1N914
SYMBOL diode 704 176 R90
WINDOW 0 0 32 VBottom 2
WINDOW 3 32 32 VTop 2
SYMATTR InstName D2
SYMATTR Value 1N914
SYMBOL diode 640 128 R270
WINDOW 0 32 32 VTop 2
WINDOW 3 0 32 VBottom 2
SYMATTR InstName D3
SYMATTR Value 1N914
SYMBOL diode 704 0 R90
WINDOW 0 0 32 VBottom 2
WINDOW 3 32 32 VTop 2
SYMATTR InstName D4
SYMATTR Value 1N914
SYMBOL cap 800 -16 R0
SYMATTR InstName C2
SYMATTR Value 100µ
SYMBOL res 528 16 R0
SYMATTR InstName R2
SYMATTR Value 500k
SYMBOL cap 288 0 R0
SYMATTR InstName C1
SYMATTR Value 1µ
SYMBOL cap 288 -336 R0
SYMATTR InstName C3
SYMATTR Value 10µ
SYMBOL res 2848 -96 R0
SYMATTR InstName R3
SYMATTR Value 10R
SYMBOL ind2 1696 -384 R270
WINDOW 0 32 56 VTop 2
WINDOW 3 5 56 VBottom 2
SYMATTR InstName L1
SYMATTR Value {L}
SYMATTR Type ind
SYMBOL ind2 2160 -160 M180
WINDOW 0 36 80 Left 2
WINDOW 3 36 40 Left 2
SYMATTR InstName L2
SYMATTR Value {L}
SYMATTR Type ind
SYMBOL res 2464 -272 R0
SYMATTR InstName R4
SYMATTR Value 270k
SYMBOL res 2464 32 R0
SYMATTR InstName R5
SYMATTR Value 10k
SYMBOL cap 2576 -80 R0
SYMATTR InstName C4
SYMATTR Value 10µ
SYMBOL cap 2144 -416 R90
WINDOW 0 0 32 VBottom 2
WINDOW 3 32 32 VTop 2
SYMATTR InstName C6
SYMATTR Value 10µ
SYMBOL diode 2240 -384 R270
WINDOW 0 32 32 VTop 2
WINDOW 3 0 32 VBottom 2
SYMATTR InstName D5
SYMATTR Value RF1501TF3S
SYMBOL cap 2352 -240 R0
SYMATTR InstName C7
SYMATTR Value 4p7
SYMBOL PowerProducts\\LT1613 1632 -48 R0
SYMATTR InstName U1
SYMBOL cap 2656 -80 R0
SYMATTR InstName C5
SYMATTR Value 1m
SYMBOL diode 1056 -352 R270
WINDOW 0 32 32 VTop 2
WINDOW 3 0 32 VBottom 2
SYMATTR InstName D6
SYMATTR Value 1N914
SYMBOL diode 1120 -128 R90
WINDOW 0 0 32 VBottom 2
WINDOW 3 32 32 VTop 2
SYMATTR InstName D7
SYMATTR Value 1N914
SYMBOL diode 1056 -176 R270
WINDOW 0 32 32 VTop 2
WINDOW 3 0 32 VBottom 2
SYMATTR InstName D8
SYMATTR Value 1N914
SYMBOL diode 1120 -304 R90
WINDOW 0 0 32 VBottom 2
WINDOW 3 32 32 VTop 2
SYMATTR InstName D9
SYMATTR Value 1N914
SYMBOL cap 1216 -320 R0
SYMATTR InstName C9
SYMATTR Value 100µ
SYMBOL pnp 1968 -240 M180
SYMATTR InstName Q1
SYMATTR Value D45H11
SYMBOL pnp 1824 -192 M180
SYMATTR InstName Q2
SYMATTR Value 2SB1260
TEXT 256 216 Left 2 !.param L=44u
TEXT 24 216 Left 2 !.tran 1s
TEXT 440 216 Left 2 !K L1 L2 1
